*************************************************************************
*  (C)  Copyright 2018 Toshiba Electronic Devices & Storage Corporation
*  Date                 :23/03/2018
*  File name            :TLP291-4.lib
*  Part number          :TLP291-4		(IC/IF(CTR):~200%)
*  Parameter ver.       :Ver.1.2
*  Simulator            :PSpice
*  Model call name      :TLP291-4
*  TNOM                 :25 degree
*  Pin Assign           :1=Anode1 2=Cathode1 15=Emitter1 16=Collector1
*  Pin Assign           :3=Anode2 4=Cathode2 13=Emitter2 14=Collector2
*  Pin Assign           :5=Anode3 6=Cathode3 11=Emitter3 12=Collector3
*  Pin Assign           :7=Anode4 8=Cathode4  9=Emitter4 10=Collector4
*
* Operation of this model has been verified only on the OrCAD.
*************************************************************************
*
**$ENCRYPTED_LIB
**$INTERFACE

.SUBCKT TLP291_4 1 2 3 4 5 6 7 8 9 10 11 12 13 14 15 16
$CDNENCSTART_ADV2
17f62b1fb318c25603aeb85644ae98a5d179ef807807791f6459efacb9d7ffc35a73a37243d4cce46a460e928d7c8f9c39ee99122a9d3f96f7d47fafa32ba578
ef9928c9389e4dbe564dd0bb5dee36d910c6efa9b1962349631f87576ea4f098b59cbbbc2794a5167282db59fe71e95785c2c4f1e9cd7d89d72e96ca9fa6374f
26796ee06bb805891f098b2d50a8750210c6efa9b1962349631f87576ea4f098b59cbbbc2794a5167282db59fe71e95785c2c4f1e9cd7d89d72e96ca9fa6374f
1f531051d128919afa5404bdd091664510c6efa9b1962349631f87576ea4f098b59cbbbc2794a5167282db59fe71e95785c2c4f1e9cd7d89d72e96ca9fa6374f
d60f2ed9abcd0e0bdca9710a87bb261210c6efa9b1962349631f87576ea4f098b59cbbbc2794a5167282db59fe71e95785c2c4f1e9cd7d89d72e96ca9fa6374f
$CDNENCFINISH_ADV2
.ENDS TLP291_4
.SUBCKT TLP291_1 1 2 3 4
$CDNENCSTART_ADV2
17f62b1fb318c25603aeb85644ae98a5d179ef807807791f6459efacb9d7ffc35a73a37243d4cce46a460e928d7c8f9c39ee99122a9d3f96f7d47fafa32ba578
2eecb1b38d1d0c91a9a12b3680d18de8420734cc3d789439f1984855b47587edca0a8e86b19e726faea837f39eac0287c248a2808ca82991f051fa2939ac3353
ddb0a28548d753e0df750d8bb1a2a2b82c0d3294f1ec049151fc86948fa91595188fcc01263e5be9e1bd9220d5550c182399b2a18ec2a1b395274ff018ae0110
859bd0c141cb43d2a114d087c68610c9f72c097b3233c29eb44ac9e3e363021c29047782be6b020994e35bafb1bddff3e255984d2664a93b7a5579156f2dc33c
f1b3593859a672d1e135c4b0a3355d85a8b186965c409101ca4aa813e241ff081822325c8aaf53f5719c1bc2119b2b88899a937872f0d5b2c782daa7668b4f1e
40148e20a5c2419e6d775c0e1a841332786695cb0548172cf691c523b448403aa24f5b446f5905a5a002516b39d87d6cc963cea1868a5b19e082dd55ec67b8d9
829993c9797f93eaf500b94a1447eba24b2b02f6804655b3eb61fb96e4aa8b934a18bed6b6f9fc35af1e0c37d5d1ad213c66bb45fa2b1197cd3d496bf1118489
2d7bd78eacf287ddb17d586d1dff21954b2b02f6804655b3eb61fb96e4aa8b934a18bed6b6f9fc35af1e0c37d5d1ad213c66bb45fa2b1197cd3d496bf1118489
6fd8e83d5f251efa6713f48dcbfa36064b2b02f6804655b3eb61fb96e4aa8b934a18bed6b6f9fc35af1e0c37d5d1ad213c66bb45fa2b1197cd3d496bf1118489

b1d68d089a41fb6e42183e3881fd8527623f37680fc946d26344c5b350fe6a5370ac70cd602308b863c681b00cc37e31ead7f7d8e319426ec34e36e349f12996
a2a9e45f1fcc7dc7e897e75b0f17b8904b2b02f6804655b3eb61fb96e4aa8b934a18bed6b6f9fc35af1e0c37d5d1ad213c66bb45fa2b1197cd3d496bf1118489
d897997f843d810d2a511a3a67b243b34b2b02f6804655b3eb61fb96e4aa8b934a18bed6b6f9fc35af1e0c37d5d1ad213c66bb45fa2b1197cd3d496bf1118489
1d381873e5721b188cddca756cbe73e65864437d571f8f226f2beed7e59ba3a93a2d5ca22e5164c2cd70353de2d0f62190efb1bdc8ae204a83fa3700fbf0893a
17202a59dc5de5b1d9f23dd1c0a975d34b68b0e9d84e651c6d63eecbf71b879bd108fb5ead06e40834ef1d432ecbbecb01c49b0c3a64a1418118d59a31503254
f6b0373028a58ba49f94120360a4d454cb324e3e46e7175b9ff0840a1cb0a8beaf10b1046687b89d4f19578ee39d25b0b11d11fb631ef71da677b32802442190
63fbdbe5d7d9309d0ac018e3e58a1b064b68b0e9d84e651c6d63eecbf71b879bd108fb5ead06e40834ef1d432ecbbecb01c49b0c3a64a1418118d59a31503254
6ba1106c46c95717b516a57c7f3f0b075e68dedeb8b71fba2597a23aa910b95267a8170359a951b0cca1488848cbaf8171337c1fb8e54427b32f8bb68bcd82cb
54243b971504ef6fd5869b791cc9e1595e68dedeb8b71fba2597a23aa910b95267a8170359a951b0cca1488848cbaf8171337c1fb8e54427b32f8bb68bcd82cb
23743f3271b2e4e0019c09566d9c0c0bf72c097b3233c29eb44ac9e3e363021c29047782be6b020994e35bafb1bddff3e255984d2664a93b7a5579156f2dc33c
f43c0fdc7e5fd00848013624c9e187d2cb324e3e46e7175b9ff0840a1cb0a8beaf10b1046687b89d4f19578ee39d25b0b11d11fb631ef71da677b32802442190
e12355f7cb122d963b3c6665962ccea5cb324e3e46e7175b9ff0840a1cb0a8beaf10b1046687b89d4f19578ee39d25b0b11d11fb631ef71da677b32802442190
563d6eca1adfc390088d19d597dbcb38cb324e3e46e7175b9ff0840a1cb0a8beaf10b1046687b89d4f19578ee39d25b0b11d11fb631ef71da677b32802442190
a1d3965aa70b04269146b6327ce4ee72cb324e3e46e7175b9ff0840a1cb0a8beaf10b1046687b89d4f19578ee39d25b0b11d11fb631ef71da677b32802442190
1d41dd074c9276825b4778ff0fb8137d4b68b0e9d84e651c6d63eecbf71b879bd108fb5ead06e40834ef1d432ecbbecb01c49b0c3a64a1418118d59a31503254
9ebbb93d551658ee7c730b1190248f384b2b02f6804655b3eb61fb96e4aa8b934a18bed6b6f9fc35af1e0c37d5d1ad213c66bb45fa2b1197cd3d496bf1118489
51a987e48219d80d2a10d32eeb0eeb334b68b0e9d84e651c6d63eecbf71b879bd108fb5ead06e40834ef1d432ecbbecb01c49b0c3a64a1418118d59a31503254
35e04ae03fc0d44c91d9c71621a9dda3fae6a53248cf5461c80ff55cf40b3b70094bdba2d49f054439ada1b2d130a7dce85b49830530ba981e941efe9d628e25
de988861a621ca8807cf1451405cb949fae6a53248cf5461c80ff55cf40b3b70094bdba2d49f054439ada1b2d130a7dce85b49830530ba981e941efe9d628e25
f39b125428122d02192019ca98e0fd5baf3249aa9c7a586478b883925b35554a924315888bea68045536bafc646decf0dc777fcccd880476c07574e073763cb4
870e0134de5447148d8bd117f90cf91b3f8701e6af088fadd88e885e02f0b2c9870d7d7e2848277f4756e940ac37d221d64ff985adf8da4ff63359f503dd0ea1
97d964daf61f116a55535031c593cc3d3f8701e6af088fadd88e885e02f0b2c9870d7d7e2848277f4756e940ac37d221d64ff985adf8da4ff63359f503dd0ea1
a0976d55458f01792518e18917210f33f07086b836bedf915e5c6196e7ae8217827a684ec81f9f4c5e8c4b966d14069e56e3ead03b415f802e40da6f7cabc664
1907f08e76ef8398cce2c5d95fbec34af07086b836bedf915e5c6196e7ae8217827a684ec81f9f4c5e8c4b966d14069e56e3ead03b415f802e40da6f7cabc664
57c0cd509c2ae094eb6164bd1af7159eaf3249aa9c7a586478b883925b35554a924315888bea68045536bafc646decf0dc777fcccd880476c07574e073763cb4
92aebbbf928c31a0d863b9b0f7ce1ed8dce0cd9db7d19f93a46c17d21d55ff15ab11b456283f6c4f721dbcd2e5ce5956b0a3fd4b96a3cc349aec6d76f2a98c09
3626bcf6e7e67badbc2dffc57f087b49dce0cd9db7d19f93a46c17d21d55ff15ab11b456283f6c4f721dbcd2e5ce5956b0a3fd4b96a3cc349aec6d76f2a98c09
7032c7c0274ae262d868f33dc103beb2c1c66bfead3ce37d8a186409ea83c5364b5919538ed2131bf3f74802cea4ae9f26b0b42a868ec8fb5993f808de8fc8dd
71305808711f25edea2613be8c67c10dc1c66bfead3ce37d8a186409ea83c5364b5919538ed2131bf3f74802cea4ae9f26b0b42a868ec8fb5993f808de8fc8dd
2263bd65c9c23801417b96c08731e31bc1c66bfead3ce37d8a186409ea83c5364b5919538ed2131bf3f74802cea4ae9f26b0b42a868ec8fb5993f808de8fc8dd
14e52cb3613d8b4e81431e067a76fc47a5127fb135fb19f0021ffde8ce071640f38241ac70dea4bcd57d3171b1106f395f62cfc790fb14634c49b0c1f22bf0ab
f8bbaf549dab00a224d7dd3154127590af3249aa9c7a586478b883925b35554a924315888bea68045536bafc646decf0dc777fcccd880476c07574e073763cb4
14580f4845b2e29399bf3bb0160d9c90c1c66bfead3ce37d8a186409ea83c5364b5919538ed2131bf3f74802cea4ae9f26b0b42a868ec8fb5993f808de8fc8dd
fd79ce5e72563b1d0a864bdd30e284caaf3249aa9c7a586478b883925b35554a924315888bea68045536bafc646decf0dc777fcccd880476c07574e073763cb4
6cc98d291bcd2abc249f24e43d8c49feaf3249aa9c7a586478b883925b35554a924315888bea68045536bafc646decf0dc777fcccd880476c07574e073763cb4
b9daa2def638fbd7bfba9deb26a7473dc1c66bfead3ce37d8a186409ea83c5364b5919538ed2131bf3f74802cea4ae9f26b0b42a868ec8fb5993f808de8fc8dd
58e3ae0197486a47ea5319ae25a7d3d7f07086b836bedf915e5c6196e7ae8217827a684ec81f9f4c5e8c4b966d14069e56e3ead03b415f802e40da6f7cabc664
9cf351d0b89d1534bb43b97212e4c202fae6a53248cf5461c80ff55cf40b3b70094bdba2d49f054439ada1b2d130a7dce85b49830530ba981e941efe9d628e25
ee466f28e6fe23ac4c5c84ea72f0bd76af3249aa9c7a586478b883925b35554a924315888bea68045536bafc646decf0dc777fcccd880476c07574e073763cb4
bf4867c6d52fe798d09960b0c0ed73aac1c66bfead3ce37d8a186409ea83c5364b5919538ed2131bf3f74802cea4ae9f26b0b42a868ec8fb5993f808de8fc8dd
4ab72a992172aad8bae45b70cf0c9205af3249aa9c7a586478b883925b35554a924315888bea68045536bafc646decf0dc777fcccd880476c07574e073763cb4
fab491c90bd1bb5b8a226fc3ad692f98c1c66bfead3ce37d8a186409ea83c5364b5919538ed2131bf3f74802cea4ae9f26b0b42a868ec8fb5993f808de8fc8dd

8819ce51795211dd75d51fa38cb4d1cdd62ba131b45ae6310ba1200f57714e77ed0193d60b8145003b87126b0e234d71d6efae4d79b68bd5b11562b1c2b7c6a3
4e6691fefdb6dcbc32fd94a7cb4ba954dae297929beda4c4e80f4803e0eeb0dca1540eccac0055903091c03e1c9ddc3da3d0b36ddd8fe3aa1e9e9c1fac5a8765
c96de46a296819b586002cb984968c8aaf3249aa9c7a586478b883925b35554a924315888bea68045536bafc646decf0dc777fcccd880476c07574e073763cb4
71fdeb243258105d39bfb4e756e66ac7f07086b836bedf915e5c6196e7ae8217827a684ec81f9f4c5e8c4b966d14069e56e3ead03b415f802e40da6f7cabc664
62c91d5fa55df364a8df95a66d272d8945becef68db1e9e1f435abf499e06db5b7e3413d720c3120eeaf88a53efc34d3e767ebc8f72703bb2111f66d71b19e30
00b5283dbb7c5353557b72957a70d7513f8701e6af088fadd88e885e02f0b2c9870d7d7e2848277f4756e940ac37d221d64ff985adf8da4ff63359f503dd0ea1
220f8c9a6f5bfda9e18e428a2adcab1daf3249aa9c7a586478b883925b35554a924315888bea68045536bafc646decf0dc777fcccd880476c07574e073763cb4
5af676e9a4713335b2d6f9c5ded24efe3f8701e6af088fadd88e885e02f0b2c9870d7d7e2848277f4756e940ac37d221d64ff985adf8da4ff63359f503dd0ea1
f5eeffb897f78f8cac7cfa41e7b26da2af3249aa9c7a586478b883925b35554a924315888bea68045536bafc646decf0dc777fcccd880476c07574e073763cb4
32b79fa94c62adba84cc1197a70e2474fae6a53248cf5461c80ff55cf40b3b70094bdba2d49f054439ada1b2d130a7dce85b49830530ba981e941efe9d628e25
139d9e1aac715d41c69683425e972aad3f8701e6af088fadd88e885e02f0b2c9870d7d7e2848277f4756e940ac37d221d64ff985adf8da4ff63359f503dd0ea1
cf19a04c33db8e49fcf3034e129ca608f07086b836bedf915e5c6196e7ae8217827a684ec81f9f4c5e8c4b966d14069e56e3ead03b415f802e40da6f7cabc664
47d177355bb6b2a5847cc8cedda26edcaf3249aa9c7a586478b883925b35554a924315888bea68045536bafc646decf0dc777fcccd880476c07574e073763cb4
ddd656f4f67cd93e70465594ecaad94045becef68db1e9e1f435abf499e06db5b7e3413d720c3120eeaf88a53efc34d3e767ebc8f72703bb2111f66d71b19e30

$CDNENCFINISH_ADV2
.ENDS 
